3
 energy: -10.308452242566 gnorm: 0.000338559618 xtb: 6.7.1 (f02873e4dc4a3070f355eaf9db37e90a8a0123c4)
C            0.00000000000000        0.00000000000000        0.00000000021655
O            0.00000000000000        0.00000000000000        1.14354828434761
O            0.00000000000000        0.00000000000000       -1.14354828456416
