4
 energy: -4.426244010641 gnorm: 0.000141397451 xtb: 6.7.1 (d3f212ba83287290efafee6580670d02d7b2f49d)
N            4.00000000005522        3.76506723792758        4.17783925758948
H            3.99999999954207        4.70897353195541        3.81128797582129
H            4.81744680578646        3.29311411467787        3.81128788330779
H            3.18255319461625        3.29311411543914        3.81128788328144
