19
 energy: -29.546670945755 gnorm: 0.000945748918 xtb: 6.7.1 (f02873e4dc4a3070f355eaf9db37e90a8a0123c4)
O           -1.74002546485719       -2.17658495040185        0.08908138762039
C            0.01327102630779       -0.48540685000634        0.03338133726534
C            0.31939567249712        0.90329018764573        0.00116332990108
C           -1.35566699433722       -0.87289442515910        0.05299295769131
C           -0.72500270130391        1.84890282085519       -0.01313975916731
C            1.08108336894317       -1.40923536078363        0.04400477616292
C            1.67275804180373        1.30163625655996       -0.01623075178326
C           -2.34700369088689        0.07999025883071        0.03689747866691
C           -2.02927087959910        1.44046006889474        0.00345680593069
C            2.38154375078601       -0.98775995176684        0.02568897079018
C            2.68175800801514        0.38131729170490       -0.00391103846563
H           -0.47516848129511        2.89934862257032       -0.03758502694602
H            0.88462635157535       -2.47455121658531        0.06583395959764
H            1.89583560817434        2.35884362268191       -0.03975276406456
H           -3.37459607168473       -0.24670876689687        0.05172093590376
H           -2.82954141632788        2.16531978932145       -0.00836585295141
H            3.18468004741309       -1.70997586570114        0.03376119580436
H            3.71392490282878        0.69882826223622       -0.01713361713264
H           -0.96850107805244       -2.75391979400006        0.10053567517622
