3
 energy: -10.308452242563 gnorm: 0.000338571880 xtb: 6.7.1 (f02873e4dc4a3070f355eaf9db37e90a8a0123c4)
C            2.49999999979525        2.49999999979525        2.49999999988405
O            2.50000000010238        2.50000000010238        3.64354828078941
O            2.50000000010238        2.50000000010238        1.35645171932654
