3
 energy: -5.070544351024 gnorm: 0.000185028133 xtb: 6.7.1 (d3f212ba83287290efafee6580670d02d7b2f49d)
O            4.00000000000000        4.00000000013755        4.27966449384263
H            4.00000000000000        4.77250895364620        3.71109050313242
H            4.00000000000000        3.22749104621624        3.71109050302495
