5
 energy: -4.175217655827 gnorm: 0.000794417076 xtb: 6.7.1 (d3f212ba83287290efafee6580670d02d7b2f49d)
C            3.99999999994974        3.99999999994974        3.99999999994932
H            4.62445562214512        4.62445562214512        4.62445562214526
H            3.37554437779363        3.37554437779362        4.62445562231802
H            4.62445562231795        3.37554437779356        3.37554437779370
H            3.37554437779356        4.62445562231795        3.37554437779370
