8
 energy: -14.459942512742 gnorm: 0.000145457154 xtb: 6.7.1 (d3f212ba83287290efafee6580670d02d7b2f49d)
C            3.91421810332092        4.24342467837494        3.99999999762925
O            4.08853904473602        5.43089152605070        3.99999999841214
O            2.68932624956588        3.69731327500143        4.00000000218691
H            2.00994202196730        4.38946239411509        4.00000000132416
C            4.98700778700391        3.19341132158744        4.00000000003249
H            5.96474712613650        3.66405396278123        4.00000000195169
H            4.87281183199172        2.56505992021158        4.87993102904901
H            4.87281183527774        2.56505992187759        3.12006896941434
